
---------- Begin Simulation Statistics ----------
final_tick                                   29725578                       # Number of ticks from beginning of simulation (restored from checkpoints and never reset)
host_inst_rate                                 101560                       # Simulator instruction rate (inst/s)
host_mem_usage                                 678756                       # Number of bytes of host memory used
host_op_rate                                   116574                       # Simulator op (including micro ops) rate (op/s)
host_seconds                                     0.08                       # Real time elapsed on the host
host_tick_rate                              350708281                       # Simulator tick rate (ticks/s)
sim_freq                                 1000000000000                       # Frequency of simulated ticks
sim_insts                                        8591                       # Number of instructions simulated
sim_ops                                          9876                       # Number of ops (including micro ops) simulated
sim_seconds                                  0.000030                       # Number of seconds simulated
sim_ticks                                    29725578                       # Number of ticks simulated
system.cpu.branchPred.BTBCorrect                    0                       # Number of correct BTB predictions (this stat may not work properly.
system.cpu.branchPred.BTBHitPct             25.896580                       # BTB Hit Percentage
system.cpu.branchPred.BTBHits                     621                       # Number of BTB hits
system.cpu.branchPred.BTBLookups                 2398                       # Number of BTB lookups
system.cpu.branchPred.RASInCorrect                  5                       # Number of incorrect RAS predictions.
system.cpu.branchPred.condIncorrect               526                       # Number of conditional branches incorrect
system.cpu.branchPred.condPredicted              1935                       # Number of conditional branches predicted
system.cpu.branchPred.indirectHits                 25                       # Number of indirect target hits.
system.cpu.branchPred.indirectLookups             146                       # Number of indirect predictor lookups.
system.cpu.branchPred.indirectMisses              121                       # Number of indirect misses.
system.cpu.branchPred.lookups                    2965                       # Number of BP lookups
system.cpu.branchPred.usedRAS                     265                       # Number of times the RAS was used to get a target.
system.cpu.branchPredindirectMispredicted           61                       # Number of mispredicted indirect branches.
system.cpu.committedInsts                        8591                       # Number of instructions committed
system.cpu.committedOps                          9876                       # Number of ops (including micro ops) committed
system.cpu.cpi                              10.390641                       # CPI: cycles per instruction
system.cpu.discardedOps                          1735                       # Number of ops (including micro ops) which were discarded before commit
system.cpu.dtb.accesses                             0                       # DTB accesses
system.cpu.dtb.align_faults                         0                       # Number of TLB faults due to alignment restrictions
system.cpu.dtb.domain_faults                        0                       # Number of TLB faults due to domain restrictions
system.cpu.dtb.flush_entries                        0                       # Number of entries that have been flushed from TLB
system.cpu.dtb.flush_tlb                            0                       # Number of times complete TLB was flushed
system.cpu.dtb.flush_tlb_asid                       0                       # Number of times TLB was flushed by ASID
system.cpu.dtb.flush_tlb_mva                        0                       # Number of times TLB was flushed by MVA
system.cpu.dtb.flush_tlb_mva_asid                   0                       # Number of times TLB was flushed by MVA & ASID
system.cpu.dtb.hits                                 0                       # DTB hits
system.cpu.dtb.inst_accesses                        0                       # ITB inst accesses
system.cpu.dtb.inst_hits                            0                       # ITB inst hits
system.cpu.dtb.inst_misses                          0                       # ITB inst misses
system.cpu.dtb.misses                               0                       # DTB misses
system.cpu.dtb.perms_faults                         0                       # Number of TLB faults due to permissions restrictions
system.cpu.dtb.prefetch_faults                      0                       # Number of TLB faults due to prefetch
system.cpu.dtb.read_accesses                        0                       # DTB read accesses
system.cpu.dtb.read_hits                            0                       # DTB read hits
system.cpu.dtb.read_misses                          0                       # DTB read misses
system.cpu.dtb.stage2_mmu.stage2_tlb.accesses            0                       # DTB accesses
system.cpu.dtb.stage2_mmu.stage2_tlb.align_faults            0                       # Number of TLB faults due to alignment restrictions
system.cpu.dtb.stage2_mmu.stage2_tlb.domain_faults            0                       # Number of TLB faults due to domain restrictions
system.cpu.dtb.stage2_mmu.stage2_tlb.flush_entries            0                       # Number of entries that have been flushed from TLB
system.cpu.dtb.stage2_mmu.stage2_tlb.flush_tlb            0                       # Number of times complete TLB was flushed
system.cpu.dtb.stage2_mmu.stage2_tlb.flush_tlb_asid            0                       # Number of times TLB was flushed by ASID
system.cpu.dtb.stage2_mmu.stage2_tlb.flush_tlb_mva            0                       # Number of times TLB was flushed by MVA
system.cpu.dtb.stage2_mmu.stage2_tlb.flush_tlb_mva_asid            0                       # Number of times TLB was flushed by MVA & ASID
system.cpu.dtb.stage2_mmu.stage2_tlb.hits            0                       # DTB hits
system.cpu.dtb.stage2_mmu.stage2_tlb.inst_accesses            0                       # ITB inst accesses
system.cpu.dtb.stage2_mmu.stage2_tlb.inst_hits            0                       # ITB inst hits
system.cpu.dtb.stage2_mmu.stage2_tlb.inst_misses            0                       # ITB inst misses
system.cpu.dtb.stage2_mmu.stage2_tlb.misses            0                       # DTB misses
system.cpu.dtb.stage2_mmu.stage2_tlb.perms_faults            0                       # Number of TLB faults due to permissions restrictions
system.cpu.dtb.stage2_mmu.stage2_tlb.prefetch_faults            0                       # Number of TLB faults due to prefetch
system.cpu.dtb.stage2_mmu.stage2_tlb.read_accesses            0                       # DTB read accesses
system.cpu.dtb.stage2_mmu.stage2_tlb.read_hits            0                       # DTB read hits
system.cpu.dtb.stage2_mmu.stage2_tlb.read_misses            0                       # DTB read misses
system.cpu.dtb.stage2_mmu.stage2_tlb.walker.walkRequestOrigin_Requested::Data            0                       # Table walker requests started/completed, data/inst
system.cpu.dtb.stage2_mmu.stage2_tlb.walker.walkRequestOrigin_Requested::Inst            0                       # Table walker requests started/completed, data/inst
system.cpu.dtb.stage2_mmu.stage2_tlb.walker.walkRequestOrigin_Requested::total            0                       # Table walker requests started/completed, data/inst
system.cpu.dtb.stage2_mmu.stage2_tlb.walker.walkRequestOrigin_Completed::Data            0                       # Table walker requests started/completed, data/inst
system.cpu.dtb.stage2_mmu.stage2_tlb.walker.walkRequestOrigin_Completed::Inst            0                       # Table walker requests started/completed, data/inst
system.cpu.dtb.stage2_mmu.stage2_tlb.walker.walkRequestOrigin_Completed::total            0                       # Table walker requests started/completed, data/inst
system.cpu.dtb.stage2_mmu.stage2_tlb.walker.walkRequestOrigin::total            0                       # Table walker requests started/completed, data/inst
system.cpu.dtb.stage2_mmu.stage2_tlb.walker.walks            0                       # Table walker walks requested
system.cpu.dtb.stage2_mmu.stage2_tlb.write_accesses            0                       # DTB write accesses
system.cpu.dtb.stage2_mmu.stage2_tlb.write_hits            0                       # DTB write hits
system.cpu.dtb.stage2_mmu.stage2_tlb.write_misses            0                       # DTB write misses
system.cpu.dtb.walker.walkRequestOrigin_Requested::Data            0                       # Table walker requests started/completed, data/inst
system.cpu.dtb.walker.walkRequestOrigin_Requested::Inst            0                       # Table walker requests started/completed, data/inst
system.cpu.dtb.walker.walkRequestOrigin_Requested::total            0                       # Table walker requests started/completed, data/inst
system.cpu.dtb.walker.walkRequestOrigin_Completed::Data            0                       # Table walker requests started/completed, data/inst
system.cpu.dtb.walker.walkRequestOrigin_Completed::Inst            0                       # Table walker requests started/completed, data/inst
system.cpu.dtb.walker.walkRequestOrigin_Completed::total            0                       # Table walker requests started/completed, data/inst
system.cpu.dtb.walker.walkRequestOrigin::total            0                       # Table walker requests started/completed, data/inst
system.cpu.dtb.walker.walks                         0                       # Table walker walks requested
system.cpu.dtb.write_accesses                       0                       # DTB write accesses
system.cpu.dtb.write_hits                           0                       # DTB write hits
system.cpu.dtb.write_misses                         0                       # DTB write misses
system.cpu.fetch2.amo_instructions                  0                       # Number of memory atomic instructions successfully decoded
system.cpu.fetch2.fp_instructions                   0                       # Number of floating point instructions successfully decoded
system.cpu.fetch2.int_instructions               8951                       # Number of integer instructions successfully decoded
system.cpu.fetch2.load_instructions              2019                       # Number of memory load instructions successfully decoded
system.cpu.fetch2.store_instructions             1271                       # Number of memory store instructions successfully decoded
system.cpu.fetch2.vec_instructions                  0                       # Number of SIMD instructions successfully decoded
system.cpu.idleCycles                           72233                       # Total number of cycles that the object has spent stopped
system.cpu.ipc                               0.096240                       # IPC: instructions per cycle
system.cpu.itb.accesses                             0                       # DTB accesses
system.cpu.itb.align_faults                         0                       # Number of TLB faults due to alignment restrictions
system.cpu.itb.domain_faults                        0                       # Number of TLB faults due to domain restrictions
system.cpu.itb.flush_entries                        0                       # Number of entries that have been flushed from TLB
system.cpu.itb.flush_tlb                            0                       # Number of times complete TLB was flushed
system.cpu.itb.flush_tlb_asid                       0                       # Number of times TLB was flushed by ASID
system.cpu.itb.flush_tlb_mva                        0                       # Number of times TLB was flushed by MVA
system.cpu.itb.flush_tlb_mva_asid                   0                       # Number of times TLB was flushed by MVA & ASID
system.cpu.itb.hits                                 0                       # DTB hits
system.cpu.itb.inst_accesses                        0                       # ITB inst accesses
system.cpu.itb.inst_hits                            0                       # ITB inst hits
system.cpu.itb.inst_misses                          0                       # ITB inst misses
system.cpu.itb.misses                               0                       # DTB misses
system.cpu.itb.perms_faults                         0                       # Number of TLB faults due to permissions restrictions
system.cpu.itb.prefetch_faults                      0                       # Number of TLB faults due to prefetch
system.cpu.itb.read_accesses                        0                       # DTB read accesses
system.cpu.itb.read_hits                            0                       # DTB read hits
system.cpu.itb.read_misses                          0                       # DTB read misses
system.cpu.itb.stage2_mmu.stage2_tlb.accesses            0                       # DTB accesses
system.cpu.itb.stage2_mmu.stage2_tlb.align_faults            0                       # Number of TLB faults due to alignment restrictions
system.cpu.itb.stage2_mmu.stage2_tlb.domain_faults            0                       # Number of TLB faults due to domain restrictions
system.cpu.itb.stage2_mmu.stage2_tlb.flush_entries            0                       # Number of entries that have been flushed from TLB
system.cpu.itb.stage2_mmu.stage2_tlb.flush_tlb            0                       # Number of times complete TLB was flushed
system.cpu.itb.stage2_mmu.stage2_tlb.flush_tlb_asid            0                       # Number of times TLB was flushed by ASID
system.cpu.itb.stage2_mmu.stage2_tlb.flush_tlb_mva            0                       # Number of times TLB was flushed by MVA
system.cpu.itb.stage2_mmu.stage2_tlb.flush_tlb_mva_asid            0                       # Number of times TLB was flushed by MVA & ASID
system.cpu.itb.stage2_mmu.stage2_tlb.hits            0                       # DTB hits
system.cpu.itb.stage2_mmu.stage2_tlb.inst_accesses            0                       # ITB inst accesses
system.cpu.itb.stage2_mmu.stage2_tlb.inst_hits            0                       # ITB inst hits
system.cpu.itb.stage2_mmu.stage2_tlb.inst_misses            0                       # ITB inst misses
system.cpu.itb.stage2_mmu.stage2_tlb.misses            0                       # DTB misses
system.cpu.itb.stage2_mmu.stage2_tlb.perms_faults            0                       # Number of TLB faults due to permissions restrictions
system.cpu.itb.stage2_mmu.stage2_tlb.prefetch_faults            0                       # Number of TLB faults due to prefetch
system.cpu.itb.stage2_mmu.stage2_tlb.read_accesses            0                       # DTB read accesses
system.cpu.itb.stage2_mmu.stage2_tlb.read_hits            0                       # DTB read hits
system.cpu.itb.stage2_mmu.stage2_tlb.read_misses            0                       # DTB read misses
system.cpu.itb.stage2_mmu.stage2_tlb.walker.walkRequestOrigin_Requested::Data            0                       # Table walker requests started/completed, data/inst
system.cpu.itb.stage2_mmu.stage2_tlb.walker.walkRequestOrigin_Requested::Inst            0                       # Table walker requests started/completed, data/inst
system.cpu.itb.stage2_mmu.stage2_tlb.walker.walkRequestOrigin_Requested::total            0                       # Table walker requests started/completed, data/inst
system.cpu.itb.stage2_mmu.stage2_tlb.walker.walkRequestOrigin_Completed::Data            0                       # Table walker requests started/completed, data/inst
system.cpu.itb.stage2_mmu.stage2_tlb.walker.walkRequestOrigin_Completed::Inst            0                       # Table walker requests started/completed, data/inst
system.cpu.itb.stage2_mmu.stage2_tlb.walker.walkRequestOrigin_Completed::total            0                       # Table walker requests started/completed, data/inst
system.cpu.itb.stage2_mmu.stage2_tlb.walker.walkRequestOrigin::total            0                       # Table walker requests started/completed, data/inst
system.cpu.itb.stage2_mmu.stage2_tlb.walker.walks            0                       # Table walker walks requested
system.cpu.itb.stage2_mmu.stage2_tlb.write_accesses            0                       # DTB write accesses
system.cpu.itb.stage2_mmu.stage2_tlb.write_hits            0                       # DTB write hits
system.cpu.itb.stage2_mmu.stage2_tlb.write_misses            0                       # DTB write misses
system.cpu.itb.walker.walkRequestOrigin_Requested::Data            0                       # Table walker requests started/completed, data/inst
system.cpu.itb.walker.walkRequestOrigin_Requested::Inst            0                       # Table walker requests started/completed, data/inst
system.cpu.itb.walker.walkRequestOrigin_Requested::total            0                       # Table walker requests started/completed, data/inst
system.cpu.itb.walker.walkRequestOrigin_Completed::Data            0                       # Table walker requests started/completed, data/inst
system.cpu.itb.walker.walkRequestOrigin_Completed::Inst            0                       # Table walker requests started/completed, data/inst
system.cpu.itb.walker.walkRequestOrigin_Completed::total            0                       # Table walker requests started/completed, data/inst
system.cpu.itb.walker.walkRequestOrigin::total            0                       # Table walker requests started/completed, data/inst
system.cpu.itb.walker.walks                         0                       # Table walker walks requested
system.cpu.itb.write_accesses                       0                       # DTB write accesses
system.cpu.itb.write_hits                           0                       # DTB write hits
system.cpu.itb.write_misses                         0                       # DTB write misses
system.cpu.numCycles                            89266                       # number of cpu cycles simulated
system.cpu.numFetchSuspends                         0                       # Number of times Execute suspended instruction fetching
system.cpu.numWorkItemsCompleted                    0                       # number of work items this cpu completed
system.cpu.numWorkItemsStarted                      0                       # number of work items this cpu started
system.cpu.op_class_0::No_OpClass                   0      0.00%      0.00% # Class of committed instruction
system.cpu.op_class_0::IntAlu                    6864     69.50%     69.50% # Class of committed instruction
system.cpu.op_class_0::IntMult                     46      0.47%     69.97% # Class of committed instruction
system.cpu.op_class_0::IntDiv                       0      0.00%     69.97% # Class of committed instruction
system.cpu.op_class_0::FloatAdd                     0      0.00%     69.97% # Class of committed instruction
system.cpu.op_class_0::FloatCmp                     0      0.00%     69.97% # Class of committed instruction
system.cpu.op_class_0::FloatCvt                     0      0.00%     69.97% # Class of committed instruction
system.cpu.op_class_0::FloatMult                    0      0.00%     69.97% # Class of committed instruction
system.cpu.op_class_0::FloatMultAcc                 0      0.00%     69.97% # Class of committed instruction
system.cpu.op_class_0::FloatDiv                     0      0.00%     69.97% # Class of committed instruction
system.cpu.op_class_0::FloatMisc                    0      0.00%     69.97% # Class of committed instruction
system.cpu.op_class_0::FloatSqrt                    0      0.00%     69.97% # Class of committed instruction
system.cpu.op_class_0::SimdAdd                      0      0.00%     69.97% # Class of committed instruction
system.cpu.op_class_0::SimdAddAcc                   0      0.00%     69.97% # Class of committed instruction
system.cpu.op_class_0::SimdAlu                      0      0.00%     69.97% # Class of committed instruction
system.cpu.op_class_0::SimdCmp                      0      0.00%     69.97% # Class of committed instruction
system.cpu.op_class_0::SimdCvt                      0      0.00%     69.97% # Class of committed instruction
system.cpu.op_class_0::SimdMisc                     0      0.00%     69.97% # Class of committed instruction
system.cpu.op_class_0::SimdMult                     0      0.00%     69.97% # Class of committed instruction
system.cpu.op_class_0::SimdMultAcc                  0      0.00%     69.97% # Class of committed instruction
system.cpu.op_class_0::SimdShift                    0      0.00%     69.97% # Class of committed instruction
system.cpu.op_class_0::SimdShiftAcc                 0      0.00%     69.97% # Class of committed instruction
system.cpu.op_class_0::SimdDiv                      0      0.00%     69.97% # Class of committed instruction
system.cpu.op_class_0::SimdSqrt                     0      0.00%     69.97% # Class of committed instruction
system.cpu.op_class_0::SimdFloatAdd                 0      0.00%     69.97% # Class of committed instruction
system.cpu.op_class_0::SimdFloatAlu                 0      0.00%     69.97% # Class of committed instruction
system.cpu.op_class_0::SimdFloatCmp                 0      0.00%     69.97% # Class of committed instruction
system.cpu.op_class_0::SimdFloatCvt                 0      0.00%     69.97% # Class of committed instruction
system.cpu.op_class_0::SimdFloatDiv                 0      0.00%     69.97% # Class of committed instruction
system.cpu.op_class_0::SimdFloatMisc               21      0.21%     70.18% # Class of committed instruction
system.cpu.op_class_0::SimdFloatMult                0      0.00%     70.18% # Class of committed instruction
system.cpu.op_class_0::SimdFloatMultAcc             0      0.00%     70.18% # Class of committed instruction
system.cpu.op_class_0::SimdFloatSqrt                0      0.00%     70.18% # Class of committed instruction
system.cpu.op_class_0::SimdReduceAdd                0      0.00%     70.18% # Class of committed instruction
system.cpu.op_class_0::SimdReduceAlu                0      0.00%     70.18% # Class of committed instruction
system.cpu.op_class_0::SimdReduceCmp                0      0.00%     70.18% # Class of committed instruction
system.cpu.op_class_0::SimdFloatReduceAdd            0      0.00%     70.18% # Class of committed instruction
system.cpu.op_class_0::SimdFloatReduceCmp            0      0.00%     70.18% # Class of committed instruction
system.cpu.op_class_0::SimdAes                      0      0.00%     70.18% # Class of committed instruction
system.cpu.op_class_0::SimdAesMix                   0      0.00%     70.18% # Class of committed instruction
system.cpu.op_class_0::SimdSha1Hash                 0      0.00%     70.18% # Class of committed instruction
system.cpu.op_class_0::SimdSha1Hash2                0      0.00%     70.18% # Class of committed instruction
system.cpu.op_class_0::SimdSha256Hash               0      0.00%     70.18% # Class of committed instruction
system.cpu.op_class_0::SimdSha256Hash2              0      0.00%     70.18% # Class of committed instruction
system.cpu.op_class_0::SimdShaSigma2                0      0.00%     70.18% # Class of committed instruction
system.cpu.op_class_0::SimdShaSigma3                0      0.00%     70.18% # Class of committed instruction
system.cpu.op_class_0::SimdPredAlu                  0      0.00%     70.18% # Class of committed instruction
system.cpu.op_class_0::MemRead                   1395     14.13%     84.31% # Class of committed instruction
system.cpu.op_class_0::MemWrite                  1550     15.69%    100.00% # Class of committed instruction
system.cpu.op_class_0::FloatMemRead                 0      0.00%    100.00% # Class of committed instruction
system.cpu.op_class_0::FloatMemWrite                0      0.00%    100.00% # Class of committed instruction
system.cpu.op_class_0::IprAccess                    0      0.00%    100.00% # Class of committed instruction
system.cpu.op_class_0::InstPrefetch                 0      0.00%    100.00% # Class of committed instruction
system.cpu.op_class_0::total                     9876                       # Class of committed instruction
system.cpu.tickCycles                           17033                       # Number of cycles that the object actually ticked
system.cpu.workload.numSyscalls                    10                       # Number of system calls
system.membus.snoop_filter.hit_multi_requests            4                       # Number of requests hitting in the snoop filter with multiple (>1) holders of the requested data.
system.membus.snoop_filter.hit_multi_snoops            0                       # Number of snoops hitting in the snoop filter with multiple (>1) holders of the requested data.
system.membus.snoop_filter.hit_single_requests           90                       # Number of requests hitting in the snoop filter with a single holder of the requested data.
system.membus.snoop_filter.hit_single_snoops            0                       # Number of snoops hitting in the snoop filter with a single holder of the requested data.
system.membus.snoop_filter.tot_requests           610                       # Total number of requests made to the snoop filter.
system.membus.snoop_filter.tot_snoops               0                       # Total number of snoops made to the snoop filter.
system.membus.pwrStateResidencyTicks::UNDEFINED     29725578                       # Cumulative time (in ticks) in various power states
system.membus.trans_dist::ReadResp                472                       # Transaction distribution
system.membus.trans_dist::WritebackClean           69                       # Transaction distribution
system.membus.trans_dist::CleanEvict                1                       # Transaction distribution
system.membus.trans_dist::ReadExReq                68                       # Transaction distribution
system.membus.trans_dist::ReadExResp               68                       # Transaction distribution
system.membus.trans_dist::ReadCleanReq            368                       # Transaction distribution
system.membus.trans_dist::ReadSharedReq           104                       # Transaction distribution
system.membus.pkt_count_system.cpu.icache.mem_side::system.mem_ctrls.port          805                       # Packet count per connected master and slave (bytes)
system.membus.pkt_count_system.cpu.dcache.mem_side::system.mem_ctrls.port          345                       # Packet count per connected master and slave (bytes)
system.membus.pkt_count::total                   1150                       # Packet count per connected master and slave (bytes)
system.membus.pkt_size_system.cpu.icache.mem_side::system.mem_ctrls.port        27968                       # Cumulative packet size per connected master and slave (bytes)
system.membus.pkt_size_system.cpu.dcache.mem_side::system.mem_ctrls.port        11008                       # Cumulative packet size per connected master and slave (bytes)
system.membus.pkt_size::total                   38976                       # Cumulative packet size per connected master and slave (bytes)
system.membus.snoops                                0                       # Total snoops (count)
system.membus.snoopTraffic                          0                       # Total snoop traffic (bytes)
system.membus.snoop_fanout::samples               540                       # Request fanout histogram
system.membus.snoop_fanout::mean             0.044444                       # Request fanout histogram
system.membus.snoop_fanout::stdev            0.206271                       # Request fanout histogram
system.membus.snoop_fanout::underflows              0      0.00%      0.00% # Request fanout histogram
system.membus.snoop_fanout::0                     516     95.56%     95.56% # Request fanout histogram
system.membus.snoop_fanout::1                      24      4.44%    100.00% # Request fanout histogram
system.membus.snoop_fanout::2                       0      0.00%    100.00% # Request fanout histogram
system.membus.snoop_fanout::overflows               0      0.00%    100.00% # Request fanout histogram
system.membus.snoop_fanout::min_value               0                       # Request fanout histogram
system.membus.snoop_fanout::max_value               1                       # Request fanout histogram
system.membus.snoop_fanout::total                 540                       # Request fanout histogram
system.membus.reqLayer0.occupancy             1186622                       # Layer occupancy (ticks)
system.membus.reqLayer0.utilization               4.0                       # Layer utilization (%)
system.membus.respLayer1.occupancy            2005964                       # Layer occupancy (ticks)
system.membus.respLayer1.utilization              6.7                       # Layer utilization (%)
system.membus.respLayer2.occupancy             933735                       # Layer occupancy (ticks)
system.membus.respLayer2.utilization              3.1                       # Layer utilization (%)
system.voltage_domain.voltage                       1                       # Voltage in Volts
system.clk_domain.clock                          1000                       # Clock period in ticks
system.cpu_voltage_domain.voltage                   1                       # Voltage in Volts
system.mem_ctrls.pwrStateResidencyTicks::UNDEFINED     29725578                       # Cumulative time (in ticks) in various power states
system.mem_ctrls.bytes_read::.cpu.inst          23552                       # Number of bytes read from this memory
system.mem_ctrls.bytes_read::.cpu.data          11008                       # Number of bytes read from this memory
system.mem_ctrls.bytes_read::total              34560                       # Number of bytes read from this memory
system.mem_ctrls.bytes_inst_read::.cpu.inst        23552                       # Number of instructions bytes read from this memory
system.mem_ctrls.bytes_inst_read::total         23552                       # Number of instructions bytes read from this memory
system.mem_ctrls.num_reads::.cpu.inst             368                       # Number of read requests responded to by this memory
system.mem_ctrls.num_reads::.cpu.data             172                       # Number of read requests responded to by this memory
system.mem_ctrls.num_reads::total                 540                       # Number of read requests responded to by this memory
system.mem_ctrls.bw_read::.cpu.inst         792314282                       # Total read bandwidth from this memory (bytes/s)
system.mem_ctrls.bw_read::.cpu.data         370320806                       # Total read bandwidth from this memory (bytes/s)
system.mem_ctrls.bw_read::total            1162635088                       # Total read bandwidth from this memory (bytes/s)
system.mem_ctrls.bw_inst_read::.cpu.inst    792314282                       # Instruction read bandwidth from this memory (bytes/s)
system.mem_ctrls.bw_inst_read::total        792314282                       # Instruction read bandwidth from this memory (bytes/s)
system.mem_ctrls.bw_total::.cpu.inst        792314282                       # Total bandwidth to/from this memory (bytes/s)
system.mem_ctrls.bw_total::.cpu.data        370320806                       # Total bandwidth to/from this memory (bytes/s)
system.mem_ctrls.bw_total::total           1162635088                       # Total bandwidth to/from this memory (bytes/s)
system.mem_ctrls.avgPriority_.writebacks::samples        64.00                       # Average QoS priority value for accepted requests
system.mem_ctrls.avgPriority_.cpu.inst::samples       355.00                       # Average QoS priority value for accepted requests
system.mem_ctrls.avgPriority_.cpu.data::samples       170.00                       # Average QoS priority value for accepted requests
system.mem_ctrls.priorityMinLatency      0.000000017492                       # per QoS priority minimum request to response latency (s)
system.mem_ctrls.priorityMaxLatency      0.000000742524                       # per QoS priority maximum request to response latency (s)
system.mem_ctrls.numReadWriteTurnArounds            0                       # Number of turnarounds from READ to WRITE
system.mem_ctrls.numWriteReadTurnArounds            0                       # Number of turnarounds from WRITE to READ
system.mem_ctrls.numStayReadState                1108                       # Number of times bus staying in READ state
system.mem_ctrls.numStayWriteState                  0                       # Number of times bus staying in WRITE state
system.mem_ctrls.readReqs                         540                       # Number of read requests accepted
system.mem_ctrls.writeReqs                         65                       # Number of write requests accepted
system.mem_ctrls.readBursts                       540                       # Number of DRAM read bursts, including those serviced by the write queue
system.mem_ctrls.writeBursts                       65                       # Number of DRAM write bursts, including those merged in the write queue
system.mem_ctrls.servicedByWrQ                     15                       # Number of DRAM read bursts serviced by the write queue
system.mem_ctrls.mergedWrBursts                     1                       # Number of DRAM write bursts merged with an existing one
system.mem_ctrls.neitherReadNorWriteReqs            0                       # Number of requests that are neither read nor write
system.mem_ctrls.perBankRdBursts::0               159                       # Per bank write bursts
system.mem_ctrls.perBankRdBursts::1                69                       # Per bank write bursts
system.mem_ctrls.perBankRdBursts::2                50                       # Per bank write bursts
system.mem_ctrls.perBankRdBursts::3                82                       # Per bank write bursts
system.mem_ctrls.perBankRdBursts::4                22                       # Per bank write bursts
system.mem_ctrls.perBankRdBursts::5                42                       # Per bank write bursts
system.mem_ctrls.perBankRdBursts::6                48                       # Per bank write bursts
system.mem_ctrls.perBankRdBursts::7                53                       # Per bank write bursts
system.mem_ctrls.perBankWrBursts::0                 0                       # Per bank write bursts
system.mem_ctrls.perBankWrBursts::1                 0                       # Per bank write bursts
system.mem_ctrls.perBankWrBursts::2                 0                       # Per bank write bursts
system.mem_ctrls.perBankWrBursts::3                 0                       # Per bank write bursts
system.mem_ctrls.perBankWrBursts::4                 0                       # Per bank write bursts
system.mem_ctrls.perBankWrBursts::5                 0                       # Per bank write bursts
system.mem_ctrls.perBankWrBursts::6                 0                       # Per bank write bursts
system.mem_ctrls.perBankWrBursts::7                 0                       # Per bank write bursts
system.mem_ctrls.avgRdQLen                       1.22                       # Average read queue length when enqueuing
system.mem_ctrls.avgWrQLen                      15.65                       # Average write queue length when enqueuing
system.mem_ctrls.totQLat                      5034331                       # Total ticks spent queuing
system.mem_ctrls.totBusLat                    1749300                       # Total ticks spent in databus transfers
system.mem_ctrls.totMemAccLat                14217631                       # Total ticks spent from burst creation until serviced by the DRAM
system.mem_ctrls.avgQLat                      9589.20                       # Average queueing delay per DRAM burst
system.mem_ctrls.avgBusLat                    3332.00                       # Average bus latency per DRAM burst
system.mem_ctrls.avgMemAccLat                27081.20                       # Average memory access latency per DRAM burst
system.mem_ctrls.numRdRetry                         0                       # Number of times read queue was full causing retry
system.mem_ctrls.numWrRetry                         0                       # Number of times write queue was full causing retry
system.mem_ctrls.readRowHits                      402                       # Number of row buffer hits during reads
system.mem_ctrls.writeRowHits                       0                       # Number of row buffer hits during writes
system.mem_ctrls.readRowHitRate                 76.57                       # Row buffer hit rate for reads
system.mem_ctrls.writeRowHitRate                 0.00                       # Row buffer hit rate for writes
system.mem_ctrls.readPktSize::0                     0                       # Read request sizes (log2)
system.mem_ctrls.readPktSize::1                     0                       # Read request sizes (log2)
system.mem_ctrls.readPktSize::2                     0                       # Read request sizes (log2)
system.mem_ctrls.readPktSize::3                     0                       # Read request sizes (log2)
system.mem_ctrls.readPktSize::4                     0                       # Read request sizes (log2)
system.mem_ctrls.readPktSize::5                     0                       # Read request sizes (log2)
system.mem_ctrls.readPktSize::6                   540                       # Read request sizes (log2)
system.mem_ctrls.writePktSize::0                    0                       # Write request sizes (log2)
system.mem_ctrls.writePktSize::1                    0                       # Write request sizes (log2)
system.mem_ctrls.writePktSize::2                    0                       # Write request sizes (log2)
system.mem_ctrls.writePktSize::3                    0                       # Write request sizes (log2)
system.mem_ctrls.writePktSize::4                    0                       # Write request sizes (log2)
system.mem_ctrls.writePktSize::5                    0                       # Write request sizes (log2)
system.mem_ctrls.writePktSize::6                   65                       # Write request sizes (log2)
system.mem_ctrls.rdQLenPdf::0                     436                       # What read queue length does an incoming req see
system.mem_ctrls.rdQLenPdf::1                      83                       # What read queue length does an incoming req see
system.mem_ctrls.rdQLenPdf::2                       6                       # What read queue length does an incoming req see
system.mem_ctrls.rdQLenPdf::3                       0                       # What read queue length does an incoming req see
system.mem_ctrls.rdQLenPdf::4                       0                       # What read queue length does an incoming req see
system.mem_ctrls.rdQLenPdf::5                       0                       # What read queue length does an incoming req see
system.mem_ctrls.rdQLenPdf::6                       0                       # What read queue length does an incoming req see
system.mem_ctrls.rdQLenPdf::7                       0                       # What read queue length does an incoming req see
system.mem_ctrls.rdQLenPdf::8                       0                       # What read queue length does an incoming req see
system.mem_ctrls.rdQLenPdf::9                       0                       # What read queue length does an incoming req see
system.mem_ctrls.rdQLenPdf::10                      0                       # What read queue length does an incoming req see
system.mem_ctrls.rdQLenPdf::11                      0                       # What read queue length does an incoming req see
system.mem_ctrls.rdQLenPdf::12                      0                       # What read queue length does an incoming req see
system.mem_ctrls.rdQLenPdf::13                      0                       # What read queue length does an incoming req see
system.mem_ctrls.rdQLenPdf::14                      0                       # What read queue length does an incoming req see
system.mem_ctrls.rdQLenPdf::15                      0                       # What read queue length does an incoming req see
system.mem_ctrls.rdQLenPdf::16                      0                       # What read queue length does an incoming req see
system.mem_ctrls.rdQLenPdf::17                      0                       # What read queue length does an incoming req see
system.mem_ctrls.rdQLenPdf::18                      0                       # What read queue length does an incoming req see
system.mem_ctrls.rdQLenPdf::19                      0                       # What read queue length does an incoming req see
system.mem_ctrls.rdQLenPdf::20                      0                       # What read queue length does an incoming req see
system.mem_ctrls.rdQLenPdf::21                      0                       # What read queue length does an incoming req see
system.mem_ctrls.rdQLenPdf::22                      0                       # What read queue length does an incoming req see
system.mem_ctrls.rdQLenPdf::23                      0                       # What read queue length does an incoming req see
system.mem_ctrls.rdQLenPdf::24                      0                       # What read queue length does an incoming req see
system.mem_ctrls.rdQLenPdf::25                      0                       # What read queue length does an incoming req see
system.mem_ctrls.rdQLenPdf::26                      0                       # What read queue length does an incoming req see
system.mem_ctrls.rdQLenPdf::27                      0                       # What read queue length does an incoming req see
system.mem_ctrls.rdQLenPdf::28                      0                       # What read queue length does an incoming req see
system.mem_ctrls.rdQLenPdf::29                      0                       # What read queue length does an incoming req see
system.mem_ctrls.rdQLenPdf::30                      0                       # What read queue length does an incoming req see
system.mem_ctrls.rdQLenPdf::31                      0                       # What read queue length does an incoming req see
system.mem_ctrls.rdQLenPdf::32                      0                       # What read queue length does an incoming req see
system.mem_ctrls.rdQLenPdf::33                      0                       # What read queue length does an incoming req see
system.mem_ctrls.rdQLenPdf::34                      0                       # What read queue length does an incoming req see
system.mem_ctrls.rdQLenPdf::35                      0                       # What read queue length does an incoming req see
system.mem_ctrls.rdQLenPdf::36                      0                       # What read queue length does an incoming req see
system.mem_ctrls.rdQLenPdf::37                      0                       # What read queue length does an incoming req see
system.mem_ctrls.rdQLenPdf::38                      0                       # What read queue length does an incoming req see
system.mem_ctrls.rdQLenPdf::39                      0                       # What read queue length does an incoming req see
system.mem_ctrls.rdQLenPdf::40                      0                       # What read queue length does an incoming req see
system.mem_ctrls.rdQLenPdf::41                      0                       # What read queue length does an incoming req see
system.mem_ctrls.rdQLenPdf::42                      0                       # What read queue length does an incoming req see
system.mem_ctrls.rdQLenPdf::43                      0                       # What read queue length does an incoming req see
system.mem_ctrls.rdQLenPdf::44                      0                       # What read queue length does an incoming req see
system.mem_ctrls.rdQLenPdf::45                      0                       # What read queue length does an incoming req see
system.mem_ctrls.rdQLenPdf::46                      0                       # What read queue length does an incoming req see
system.mem_ctrls.rdQLenPdf::47                      0                       # What read queue length does an incoming req see
system.mem_ctrls.rdQLenPdf::48                      0                       # What read queue length does an incoming req see
system.mem_ctrls.rdQLenPdf::49                      0                       # What read queue length does an incoming req see
system.mem_ctrls.rdQLenPdf::50                      0                       # What read queue length does an incoming req see
system.mem_ctrls.rdQLenPdf::51                      0                       # What read queue length does an incoming req see
system.mem_ctrls.rdQLenPdf::52                      0                       # What read queue length does an incoming req see
system.mem_ctrls.rdQLenPdf::53                      0                       # What read queue length does an incoming req see
system.mem_ctrls.rdQLenPdf::54                      0                       # What read queue length does an incoming req see
system.mem_ctrls.rdQLenPdf::55                      0                       # What read queue length does an incoming req see
system.mem_ctrls.rdQLenPdf::56                      0                       # What read queue length does an incoming req see
system.mem_ctrls.rdQLenPdf::57                      0                       # What read queue length does an incoming req see
system.mem_ctrls.rdQLenPdf::58                      0                       # What read queue length does an incoming req see
system.mem_ctrls.rdQLenPdf::59                      0                       # What read queue length does an incoming req see
system.mem_ctrls.rdQLenPdf::60                      0                       # What read queue length does an incoming req see
system.mem_ctrls.rdQLenPdf::61                      0                       # What read queue length does an incoming req see
system.mem_ctrls.rdQLenPdf::62                      0                       # What read queue length does an incoming req see
system.mem_ctrls.rdQLenPdf::63                      0                       # What read queue length does an incoming req see
system.mem_ctrls.wrQLenPdf::0                       1                       # What write queue length does an incoming req see
system.mem_ctrls.wrQLenPdf::1                       1                       # What write queue length does an incoming req see
system.mem_ctrls.wrQLenPdf::2                       1                       # What write queue length does an incoming req see
system.mem_ctrls.wrQLenPdf::3                       1                       # What write queue length does an incoming req see
system.mem_ctrls.wrQLenPdf::4                       1                       # What write queue length does an incoming req see
system.mem_ctrls.wrQLenPdf::5                       1                       # What write queue length does an incoming req see
system.mem_ctrls.wrQLenPdf::6                       1                       # What write queue length does an incoming req see
system.mem_ctrls.wrQLenPdf::7                       1                       # What write queue length does an incoming req see
system.mem_ctrls.wrQLenPdf::8                       1                       # What write queue length does an incoming req see
system.mem_ctrls.wrQLenPdf::9                       1                       # What write queue length does an incoming req see
system.mem_ctrls.wrQLenPdf::10                      1                       # What write queue length does an incoming req see
system.mem_ctrls.wrQLenPdf::11                      1                       # What write queue length does an incoming req see
system.mem_ctrls.wrQLenPdf::12                      1                       # What write queue length does an incoming req see
system.mem_ctrls.wrQLenPdf::13                      1                       # What write queue length does an incoming req see
system.mem_ctrls.wrQLenPdf::14                      1                       # What write queue length does an incoming req see
system.mem_ctrls.wrQLenPdf::15                      1                       # What write queue length does an incoming req see
system.mem_ctrls.wrQLenPdf::16                      1                       # What write queue length does an incoming req see
system.mem_ctrls.wrQLenPdf::17                      1                       # What write queue length does an incoming req see
system.mem_ctrls.wrQLenPdf::18                      1                       # What write queue length does an incoming req see
system.mem_ctrls.wrQLenPdf::19                      1                       # What write queue length does an incoming req see
system.mem_ctrls.wrQLenPdf::20                      1                       # What write queue length does an incoming req see
system.mem_ctrls.wrQLenPdf::21                      1                       # What write queue length does an incoming req see
system.mem_ctrls.wrQLenPdf::22                      1                       # What write queue length does an incoming req see
system.mem_ctrls.wrQLenPdf::23                      1                       # What write queue length does an incoming req see
system.mem_ctrls.wrQLenPdf::24                      1                       # What write queue length does an incoming req see
system.mem_ctrls.wrQLenPdf::25                      1                       # What write queue length does an incoming req see
system.mem_ctrls.wrQLenPdf::26                      1                       # What write queue length does an incoming req see
system.mem_ctrls.wrQLenPdf::27                      1                       # What write queue length does an incoming req see
system.mem_ctrls.wrQLenPdf::28                      1                       # What write queue length does an incoming req see
system.mem_ctrls.wrQLenPdf::29                      1                       # What write queue length does an incoming req see
system.mem_ctrls.wrQLenPdf::30                      1                       # What write queue length does an incoming req see
system.mem_ctrls.wrQLenPdf::31                      1                       # What write queue length does an incoming req see
system.mem_ctrls.wrQLenPdf::32                      1                       # What write queue length does an incoming req see
system.mem_ctrls.wrQLenPdf::33                      1                       # What write queue length does an incoming req see
system.mem_ctrls.wrQLenPdf::34                      1                       # What write queue length does an incoming req see
system.mem_ctrls.wrQLenPdf::35                      1                       # What write queue length does an incoming req see
system.mem_ctrls.wrQLenPdf::36                      1                       # What write queue length does an incoming req see
system.mem_ctrls.wrQLenPdf::37                      1                       # What write queue length does an incoming req see
system.mem_ctrls.wrQLenPdf::38                      1                       # What write queue length does an incoming req see
system.mem_ctrls.wrQLenPdf::39                      1                       # What write queue length does an incoming req see
system.mem_ctrls.wrQLenPdf::40                      1                       # What write queue length does an incoming req see
system.mem_ctrls.wrQLenPdf::41                      1                       # What write queue length does an incoming req see
system.mem_ctrls.wrQLenPdf::42                      1                       # What write queue length does an incoming req see
system.mem_ctrls.wrQLenPdf::43                      1                       # What write queue length does an incoming req see
system.mem_ctrls.wrQLenPdf::44                      1                       # What write queue length does an incoming req see
system.mem_ctrls.wrQLenPdf::45                      1                       # What write queue length does an incoming req see
system.mem_ctrls.wrQLenPdf::46                      1                       # What write queue length does an incoming req see
system.mem_ctrls.wrQLenPdf::47                      1                       # What write queue length does an incoming req see
system.mem_ctrls.wrQLenPdf::48                      1                       # What write queue length does an incoming req see
system.mem_ctrls.wrQLenPdf::49                      1                       # What write queue length does an incoming req see
system.mem_ctrls.wrQLenPdf::50                      1                       # What write queue length does an incoming req see
system.mem_ctrls.wrQLenPdf::51                      1                       # What write queue length does an incoming req see
system.mem_ctrls.wrQLenPdf::52                      1                       # What write queue length does an incoming req see
system.mem_ctrls.wrQLenPdf::53                      1                       # What write queue length does an incoming req see
system.mem_ctrls.wrQLenPdf::54                      1                       # What write queue length does an incoming req see
system.mem_ctrls.wrQLenPdf::55                      1                       # What write queue length does an incoming req see
system.mem_ctrls.wrQLenPdf::56                      1                       # What write queue length does an incoming req see
system.mem_ctrls.wrQLenPdf::57                      1                       # What write queue length does an incoming req see
system.mem_ctrls.wrQLenPdf::58                      1                       # What write queue length does an incoming req see
system.mem_ctrls.wrQLenPdf::59                      1                       # What write queue length does an incoming req see
system.mem_ctrls.wrQLenPdf::60                      1                       # What write queue length does an incoming req see
system.mem_ctrls.wrQLenPdf::61                      1                       # What write queue length does an incoming req see
system.mem_ctrls.wrQLenPdf::62                      1                       # What write queue length does an incoming req see
system.mem_ctrls.wrQLenPdf::63                      1                       # What write queue length does an incoming req see
system.mem_ctrls.wrQLenPdf::64                      0                       # What write queue length does an incoming req see
system.mem_ctrls.wrQLenPdf::65                      0                       # What write queue length does an incoming req see
system.mem_ctrls.wrQLenPdf::66                      0                       # What write queue length does an incoming req see
system.mem_ctrls.wrQLenPdf::67                      0                       # What write queue length does an incoming req see
system.mem_ctrls.wrQLenPdf::68                      0                       # What write queue length does an incoming req see
system.mem_ctrls.wrQLenPdf::69                      0                       # What write queue length does an incoming req see
system.mem_ctrls.wrQLenPdf::70                      0                       # What write queue length does an incoming req see
system.mem_ctrls.wrQLenPdf::71                      0                       # What write queue length does an incoming req see
system.mem_ctrls.wrQLenPdf::72                      0                       # What write queue length does an incoming req see
system.mem_ctrls.wrQLenPdf::73                      0                       # What write queue length does an incoming req see
system.mem_ctrls.wrQLenPdf::74                      0                       # What write queue length does an incoming req see
system.mem_ctrls.wrQLenPdf::75                      0                       # What write queue length does an incoming req see
system.mem_ctrls.wrQLenPdf::76                      0                       # What write queue length does an incoming req see
system.mem_ctrls.wrQLenPdf::77                      0                       # What write queue length does an incoming req see
system.mem_ctrls.wrQLenPdf::78                      0                       # What write queue length does an incoming req see
system.mem_ctrls.wrQLenPdf::79                      0                       # What write queue length does an incoming req see
system.mem_ctrls.wrQLenPdf::80                      0                       # What write queue length does an incoming req see
system.mem_ctrls.wrQLenPdf::81                      0                       # What write queue length does an incoming req see
system.mem_ctrls.wrQLenPdf::82                      0                       # What write queue length does an incoming req see
system.mem_ctrls.wrQLenPdf::83                      0                       # What write queue length does an incoming req see
system.mem_ctrls.wrQLenPdf::84                      0                       # What write queue length does an incoming req see
system.mem_ctrls.wrQLenPdf::85                      0                       # What write queue length does an incoming req see
system.mem_ctrls.wrQLenPdf::86                      0                       # What write queue length does an incoming req see
system.mem_ctrls.wrQLenPdf::87                      0                       # What write queue length does an incoming req see
system.mem_ctrls.wrQLenPdf::88                      0                       # What write queue length does an incoming req see
system.mem_ctrls.wrQLenPdf::89                      0                       # What write queue length does an incoming req see
system.mem_ctrls.wrQLenPdf::90                      0                       # What write queue length does an incoming req see
system.mem_ctrls.wrQLenPdf::91                      0                       # What write queue length does an incoming req see
system.mem_ctrls.wrQLenPdf::92                      0                       # What write queue length does an incoming req see
system.mem_ctrls.wrQLenPdf::93                      0                       # What write queue length does an incoming req see
system.mem_ctrls.wrQLenPdf::94                      0                       # What write queue length does an incoming req see
system.mem_ctrls.wrQLenPdf::95                      0                       # What write queue length does an incoming req see
system.mem_ctrls.wrQLenPdf::96                      0                       # What write queue length does an incoming req see
system.mem_ctrls.wrQLenPdf::97                      0                       # What write queue length does an incoming req see
system.mem_ctrls.wrQLenPdf::98                      0                       # What write queue length does an incoming req see
system.mem_ctrls.wrQLenPdf::99                      0                       # What write queue length does an incoming req see
system.mem_ctrls.wrQLenPdf::100                     0                       # What write queue length does an incoming req see
system.mem_ctrls.wrQLenPdf::101                     0                       # What write queue length does an incoming req see
system.mem_ctrls.wrQLenPdf::102                     0                       # What write queue length does an incoming req see
system.mem_ctrls.wrQLenPdf::103                     0                       # What write queue length does an incoming req see
system.mem_ctrls.wrQLenPdf::104                     0                       # What write queue length does an incoming req see
system.mem_ctrls.wrQLenPdf::105                     0                       # What write queue length does an incoming req see
system.mem_ctrls.wrQLenPdf::106                     0                       # What write queue length does an incoming req see
system.mem_ctrls.wrQLenPdf::107                     0                       # What write queue length does an incoming req see
system.mem_ctrls.wrQLenPdf::108                     0                       # What write queue length does an incoming req see
system.mem_ctrls.wrQLenPdf::109                     0                       # What write queue length does an incoming req see
system.mem_ctrls.wrQLenPdf::110                     0                       # What write queue length does an incoming req see
system.mem_ctrls.wrQLenPdf::111                     0                       # What write queue length does an incoming req see
system.mem_ctrls.wrQLenPdf::112                     0                       # What write queue length does an incoming req see
system.mem_ctrls.wrQLenPdf::113                     0                       # What write queue length does an incoming req see
system.mem_ctrls.wrQLenPdf::114                     0                       # What write queue length does an incoming req see
system.mem_ctrls.wrQLenPdf::115                     0                       # What write queue length does an incoming req see
system.mem_ctrls.wrQLenPdf::116                     0                       # What write queue length does an incoming req see
system.mem_ctrls.wrQLenPdf::117                     0                       # What write queue length does an incoming req see
system.mem_ctrls.wrQLenPdf::118                     0                       # What write queue length does an incoming req see
system.mem_ctrls.wrQLenPdf::119                     0                       # What write queue length does an incoming req see
system.mem_ctrls.wrQLenPdf::120                     0                       # What write queue length does an incoming req see
system.mem_ctrls.wrQLenPdf::121                     0                       # What write queue length does an incoming req see
system.mem_ctrls.wrQLenPdf::122                     0                       # What write queue length does an incoming req see
system.mem_ctrls.wrQLenPdf::123                     0                       # What write queue length does an incoming req see
system.mem_ctrls.wrQLenPdf::124                     0                       # What write queue length does an incoming req see
system.mem_ctrls.wrQLenPdf::125                     0                       # What write queue length does an incoming req see
system.mem_ctrls.wrQLenPdf::126                     0                       # What write queue length does an incoming req see
system.mem_ctrls.wrQLenPdf::127                     0                       # What write queue length does an incoming req see
system.mem_ctrls.bytesPerActivate::samples          115                       # Bytes accessed per row activation
system.mem_ctrls.bytesPerActivate::mean    268.243478                       # Bytes accessed per row activation
system.mem_ctrls.bytesPerActivate::gmean   177.883386                       # Bytes accessed per row activation
system.mem_ctrls.bytesPerActivate::stdev   267.784300                       # Bytes accessed per row activation
system.mem_ctrls.bytesPerActivate::0-127           35     30.43%     30.43% # Bytes accessed per row activation
system.mem_ctrls.bytesPerActivate::128-255           36     31.30%     61.74% # Bytes accessed per row activation
system.mem_ctrls.bytesPerActivate::256-383           17     14.78%     76.52% # Bytes accessed per row activation
system.mem_ctrls.bytesPerActivate::384-511            8      6.96%     83.48% # Bytes accessed per row activation
system.mem_ctrls.bytesPerActivate::512-639            6      5.22%     88.70% # Bytes accessed per row activation
system.mem_ctrls.bytesPerActivate::640-767            1      0.87%     89.57% # Bytes accessed per row activation
system.mem_ctrls.bytesPerActivate::768-895            4      3.48%     93.04% # Bytes accessed per row activation
system.mem_ctrls.bytesPerActivate::896-1023            2      1.74%     94.78% # Bytes accessed per row activation
system.mem_ctrls.bytesPerActivate::1024-1151            6      5.22%    100.00% # Bytes accessed per row activation
system.mem_ctrls.bytesPerActivate::total          115                       # Bytes accessed per row activation
system.mem_ctrls.bytesReadDRAM                  33600                       # Total number of bytes read from DRAM
system.mem_ctrls.bytesReadWrQ                     960                       # Total number of bytes read from write queue
system.mem_ctrls.bytesWritten                       0                       # Total number of bytes written to DRAM
system.mem_ctrls.bytesReadSys                   34560                       # Total read bytes from the system interface side
system.mem_ctrls.bytesWrittenSys                 4160                       # Total written bytes from the system interface side
system.mem_ctrls.avgRdBW                      1130.34                       # Average DRAM read bandwidth in MiByte/s
system.mem_ctrls.avgWrBW                         0.00                       # Average achieved write bandwidth in MiByte/s
system.mem_ctrls.avgRdBWSys                   1162.64                       # Average system read bandwidth in MiByte/s
system.mem_ctrls.avgWrBWSys                    139.95                       # Average system write bandwidth in MiByte/s
system.mem_ctrls.peakBW                      19207.00                       # Theoretical peak bandwidth in MiByte/s
system.mem_ctrls.busUtil                         5.89                       # Data bus utilization in percentage
system.mem_ctrls.busUtilRead                     5.89                       # Data bus utilization in percentage for reads
system.mem_ctrls.busUtilWrite                    0.00                       # Data bus utilization in percentage for writes
system.mem_ctrls.totGap                      29670300                       # Total gap between requests
system.mem_ctrls.avgGap                      49041.82                       # Average gap between requests
system.mem_ctrls.masterReadBytes::.cpu.inst        22720                       # Per-master bytes read from memory
system.mem_ctrls.masterReadBytes::.cpu.data        10880                       # Per-master bytes read from memory
system.mem_ctrls.masterReadRate::.cpu.inst 764324919.098293066025                       # Per-master bytes read from memory rate (Bytes/sec)
system.mem_ctrls.masterReadRate::.cpu.data 366014749.990731894970                       # Per-master bytes read from memory rate (Bytes/sec)
system.mem_ctrls.masterReadAccesses::.cpu.inst          368                       # Per-master read serviced memory accesses
system.mem_ctrls.masterReadAccesses::.cpu.data          172                       # Per-master read serviced memory accesses
system.mem_ctrls.masterWriteAccesses::.writebacks           65                       # Per-master write serviced memory accesses
system.mem_ctrls.masterReadTotalLat::.cpu.inst      8986042                       # Per-master read total memory access latency
system.mem_ctrls.masterReadTotalLat::.cpu.data      5231589                       # Per-master read total memory access latency
system.mem_ctrls.masterReadAvgLat::.cpu.inst     24418.59                       # Per-master read average memory access latency
system.mem_ctrls.masterReadAvgLat::.cpu.data     30416.22                       # Per-master read average memory access latency
system.mem_ctrls.masterWriteAvgLat::.writebacks         0.00                       # Per-master write average memory access latency
system.mem_ctrls.pageHitRate                    68.25                       # Row buffer hit rate, read and write combined
system.mem_ctrls.rank0.actEnergy         672909.728400                       # Energy for activate commands per rank (pJ)
system.mem_ctrls.rank0.preEnergy         424716.712000                       # Energy for precharge commands per rank (pJ)
system.mem_ctrls.rank0.readEnergy        1593262.440000                       # Energy for read commands per rank (pJ)
system.mem_ctrls.rank0.writeEnergy                  0                       # Energy for write commands per rank (pJ)
system.mem_ctrls.rank0.refreshEnergy     1145082.783600                       # Energy for refresh commands per rank (pJ)
system.mem_ctrls.rank0.actBackEnergy     7576360.243200                       # Energy for active background per rank (pJ)
system.mem_ctrls.rank0.preBackEnergy     13730.505600                       # Energy for precharge background per rank (pJ)
system.mem_ctrls.rank0.actPowerDownEnergy            0                       # Energy for active power-down per rank (pJ)
system.mem_ctrls.rank0.prePowerDownEnergy            0                       # Energy for precharge power-down per rank (pJ)
system.mem_ctrls.rank0.selfRefreshEnergy            0                       # Energy for self refresh per rank (pJ)
system.mem_ctrls.rank0.totalEnergy       11426062.412800                       # Total energy per rank (pJ)
system.mem_ctrls.rank0.averagePower        384.384869                       # Core power per rank (mW)
system.mem_ctrls.rank0.totalIdleTime                0                       # Total Idle time Per DRAM Rank
system.mem_ctrls.rank0.memoryStateTime::IDLE          999                       # Time in different power states
system.mem_ctrls.rank0.memoryStateTime::REF      1050000                       # Time in different power states
system.mem_ctrls.rank0.memoryStateTime::SREF            0                       # Time in different power states
system.mem_ctrls.rank0.memoryStateTime::PRE_PDN            0                       # Time in different power states
system.mem_ctrls.rank0.memoryStateTime::ACT     28674579                       # Time in different power states
system.mem_ctrls.rank0.memoryStateTime::ACT_PDN            0                       # Time in different power states
system.cpu_clk_domain.clock                       333                       # Clock period in ticks
system.cpu.pwrStateResidencyTicks::ON        29725578                       # Cumulative time (in ticks) in various power states
system.cpu.icache.pwrStateResidencyTicks::UNDEFINED     29725578                       # Cumulative time (in ticks) in various power states
system.cpu.icache.demand_hits::.cpu.inst         3149                       # number of demand (read+write) hits
system.cpu.icache.demand_hits::total             3149                       # number of demand (read+write) hits
system.cpu.icache.overall_hits::.cpu.inst         3149                       # number of overall hits
system.cpu.icache.overall_hits::total            3149                       # number of overall hits
system.cpu.icache.demand_misses::.cpu.inst          368                       # number of demand (read+write) misses
system.cpu.icache.demand_misses::total            368                       # number of demand (read+write) misses
system.cpu.icache.overall_misses::.cpu.inst          368                       # number of overall misses
system.cpu.icache.overall_misses::total           368                       # number of overall misses
system.cpu.icache.demand_miss_latency::.cpu.inst     20981331                       # number of demand (read+write) miss cycles
system.cpu.icache.demand_miss_latency::total     20981331                       # number of demand (read+write) miss cycles
system.cpu.icache.overall_miss_latency::.cpu.inst     20981331                       # number of overall miss cycles
system.cpu.icache.overall_miss_latency::total     20981331                       # number of overall miss cycles
system.cpu.icache.demand_accesses::.cpu.inst         3517                       # number of demand (read+write) accesses
system.cpu.icache.demand_accesses::total         3517                       # number of demand (read+write) accesses
system.cpu.icache.overall_accesses::.cpu.inst         3517                       # number of overall (read+write) accesses
system.cpu.icache.overall_accesses::total         3517                       # number of overall (read+write) accesses
system.cpu.icache.demand_miss_rate::.cpu.inst     0.104635                       # miss rate for demand accesses
system.cpu.icache.demand_miss_rate::total     0.104635                       # miss rate for demand accesses
system.cpu.icache.overall_miss_rate::.cpu.inst     0.104635                       # miss rate for overall accesses
system.cpu.icache.overall_miss_rate::total     0.104635                       # miss rate for overall accesses
system.cpu.icache.demand_avg_miss_latency::.cpu.inst 57014.486413                       # average overall miss latency
system.cpu.icache.demand_avg_miss_latency::total 57014.486413                       # average overall miss latency
system.cpu.icache.overall_avg_miss_latency::.cpu.inst 57014.486413                       # average overall miss latency
system.cpu.icache.overall_avg_miss_latency::total 57014.486413                       # average overall miss latency
system.cpu.icache.blocked_cycles::no_mshrs            0                       # number of cycles access was blocked
system.cpu.icache.blocked_cycles::no_targets            0                       # number of cycles access was blocked
system.cpu.icache.blocked::no_mshrs                 0                       # number of cycles access was blocked
system.cpu.icache.blocked::no_targets               0                       # number of cycles access was blocked
system.cpu.icache.avg_blocked_cycles::no_mshrs          nan                       # average number of cycles each access was blocked
system.cpu.icache.avg_blocked_cycles::no_targets          nan                       # average number of cycles each access was blocked
system.cpu.icache.writebacks::.writebacks           69                       # number of writebacks
system.cpu.icache.writebacks::total                69                       # number of writebacks
system.cpu.icache.demand_mshr_misses::.cpu.inst          368                       # number of demand (read+write) MSHR misses
system.cpu.icache.demand_mshr_misses::total          368                       # number of demand (read+write) MSHR misses
system.cpu.icache.overall_mshr_misses::.cpu.inst          368                       # number of overall MSHR misses
system.cpu.icache.overall_mshr_misses::total          368                       # number of overall MSHR misses
system.cpu.icache.demand_mshr_miss_latency::.cpu.inst     20675904                       # number of demand (read+write) MSHR miss cycles
system.cpu.icache.demand_mshr_miss_latency::total     20675904                       # number of demand (read+write) MSHR miss cycles
system.cpu.icache.overall_mshr_miss_latency::.cpu.inst     20675904                       # number of overall MSHR miss cycles
system.cpu.icache.overall_mshr_miss_latency::total     20675904                       # number of overall MSHR miss cycles
system.cpu.icache.demand_mshr_miss_rate::.cpu.inst     0.104635                       # mshr miss rate for demand accesses
system.cpu.icache.demand_mshr_miss_rate::total     0.104635                       # mshr miss rate for demand accesses
system.cpu.icache.overall_mshr_miss_rate::.cpu.inst     0.104635                       # mshr miss rate for overall accesses
system.cpu.icache.overall_mshr_miss_rate::total     0.104635                       # mshr miss rate for overall accesses
system.cpu.icache.demand_avg_mshr_miss_latency::.cpu.inst 56184.521739                       # average overall mshr miss latency
system.cpu.icache.demand_avg_mshr_miss_latency::total 56184.521739                       # average overall mshr miss latency
system.cpu.icache.overall_avg_mshr_miss_latency::.cpu.inst 56184.521739                       # average overall mshr miss latency
system.cpu.icache.overall_avg_mshr_miss_latency::total 56184.521739                       # average overall mshr miss latency
system.cpu.icache.replacements                     69                       # number of replacements
system.cpu.icache.ReadReq_hits::.cpu.inst         3149                       # number of ReadReq hits
system.cpu.icache.ReadReq_hits::total            3149                       # number of ReadReq hits
system.cpu.icache.ReadReq_misses::.cpu.inst          368                       # number of ReadReq misses
system.cpu.icache.ReadReq_misses::total           368                       # number of ReadReq misses
system.cpu.icache.ReadReq_miss_latency::.cpu.inst     20981331                       # number of ReadReq miss cycles
system.cpu.icache.ReadReq_miss_latency::total     20981331                       # number of ReadReq miss cycles
system.cpu.icache.ReadReq_accesses::.cpu.inst         3517                       # number of ReadReq accesses(hits+misses)
system.cpu.icache.ReadReq_accesses::total         3517                       # number of ReadReq accesses(hits+misses)
system.cpu.icache.ReadReq_miss_rate::.cpu.inst     0.104635                       # miss rate for ReadReq accesses
system.cpu.icache.ReadReq_miss_rate::total     0.104635                       # miss rate for ReadReq accesses
system.cpu.icache.ReadReq_avg_miss_latency::.cpu.inst 57014.486413                       # average ReadReq miss latency
system.cpu.icache.ReadReq_avg_miss_latency::total 57014.486413                       # average ReadReq miss latency
system.cpu.icache.ReadReq_mshr_misses::.cpu.inst          368                       # number of ReadReq MSHR misses
system.cpu.icache.ReadReq_mshr_misses::total          368                       # number of ReadReq MSHR misses
system.cpu.icache.ReadReq_mshr_miss_latency::.cpu.inst     20675904                       # number of ReadReq MSHR miss cycles
system.cpu.icache.ReadReq_mshr_miss_latency::total     20675904                       # number of ReadReq MSHR miss cycles
system.cpu.icache.ReadReq_mshr_miss_rate::.cpu.inst     0.104635                       # mshr miss rate for ReadReq accesses
system.cpu.icache.ReadReq_mshr_miss_rate::total     0.104635                       # mshr miss rate for ReadReq accesses
system.cpu.icache.ReadReq_avg_mshr_miss_latency::.cpu.inst 56184.521739                       # average ReadReq mshr miss latency
system.cpu.icache.ReadReq_avg_mshr_miss_latency::total 56184.521739                       # average ReadReq mshr miss latency
system.cpu.icache.tags.pwrStateResidencyTicks::UNDEFINED     29725578                       # Cumulative time (in ticks) in various power states
system.cpu.icache.tags.tagsinuse           164.198824                       # Cycle average of tags in use
system.cpu.icache.tags.total_refs                3517                       # Total number of references to valid blocks.
system.cpu.icache.tags.sampled_refs               368                       # Sample count of references to valid blocks.
system.cpu.icache.tags.avg_refs              9.557065                       # Average number of references to valid blocks.
system.cpu.icache.tags.warmup_cycle             76000                       # Cycle when the warmup percentage was hit.
system.cpu.icache.tags.occ_blocks::.cpu.inst   164.198824                       # Average occupied blocks per requestor
system.cpu.icache.tags.occ_percent::.cpu.inst     0.320701                       # Average percentage of cache occupancy
system.cpu.icache.tags.occ_percent::total     0.320701                       # Average percentage of cache occupancy
system.cpu.icache.tags.occ_task_id_blocks::1024          299                       # Occupied blocks per task id
system.cpu.icache.tags.age_task_id_blocks_1024::0          135                       # Occupied blocks per task id
system.cpu.icache.tags.age_task_id_blocks_1024::1          164                       # Occupied blocks per task id
system.cpu.icache.tags.occ_task_id_percent::1024     0.583984                       # Percentage of cache occupancy per task id
system.cpu.icache.tags.tag_accesses              7402                       # Number of tag accesses
system.cpu.icache.tags.data_accesses             7402                       # Number of data accesses
system.cpu.dtb.walker.pwrStateResidencyTicks::UNDEFINED     29725578                       # Cumulative time (in ticks) in various power states
system.cpu.dtb.stage2_mmu.stage2_tlb.walker.pwrStateResidencyTicks::UNDEFINED     29725578                       # Cumulative time (in ticks) in various power states
system.cpu.dcache.pwrStateResidencyTicks::UNDEFINED     29725578                       # Cumulative time (in ticks) in various power states
system.cpu.dcache.demand_hits::.cpu.data         2862                       # number of demand (read+write) hits
system.cpu.dcache.demand_hits::total             2862                       # number of demand (read+write) hits
system.cpu.dcache.overall_hits::.cpu.data         2885                       # number of overall hits
system.cpu.dcache.overall_hits::total            2885                       # number of overall hits
system.cpu.dcache.demand_misses::.cpu.data          217                       # number of demand (read+write) misses
system.cpu.dcache.demand_misses::total            217                       # number of demand (read+write) misses
system.cpu.dcache.overall_misses::.cpu.data          224                       # number of overall misses
system.cpu.dcache.overall_misses::total           224                       # number of overall misses
system.cpu.dcache.demand_miss_latency::.cpu.data     13417099                       # number of demand (read+write) miss cycles
system.cpu.dcache.demand_miss_latency::total     13417099                       # number of demand (read+write) miss cycles
system.cpu.dcache.overall_miss_latency::.cpu.data     13417099                       # number of overall miss cycles
system.cpu.dcache.overall_miss_latency::total     13417099                       # number of overall miss cycles
system.cpu.dcache.demand_accesses::.cpu.data         3079                       # number of demand (read+write) accesses
system.cpu.dcache.demand_accesses::total         3079                       # number of demand (read+write) accesses
system.cpu.dcache.overall_accesses::.cpu.data         3109                       # number of overall (read+write) accesses
system.cpu.dcache.overall_accesses::total         3109                       # number of overall (read+write) accesses
system.cpu.dcache.demand_miss_rate::.cpu.data     0.070477                       # miss rate for demand accesses
system.cpu.dcache.demand_miss_rate::total     0.070477                       # miss rate for demand accesses
system.cpu.dcache.overall_miss_rate::.cpu.data     0.072049                       # miss rate for overall accesses
system.cpu.dcache.overall_miss_rate::total     0.072049                       # miss rate for overall accesses
system.cpu.dcache.demand_avg_miss_latency::.cpu.data 61829.949309                       # average overall miss latency
system.cpu.dcache.demand_avg_miss_latency::total 61829.949309                       # average overall miss latency
system.cpu.dcache.overall_avg_miss_latency::.cpu.data 59897.763393                       # average overall miss latency
system.cpu.dcache.overall_avg_miss_latency::total 59897.763393                       # average overall miss latency
system.cpu.dcache.blocked_cycles::no_mshrs            0                       # number of cycles access was blocked
system.cpu.dcache.blocked_cycles::no_targets            0                       # number of cycles access was blocked
system.cpu.dcache.blocked::no_mshrs                 0                       # number of cycles access was blocked
system.cpu.dcache.blocked::no_targets               0                       # number of cycles access was blocked
system.cpu.dcache.avg_blocked_cycles::no_mshrs          nan                       # average number of cycles each access was blocked
system.cpu.dcache.avg_blocked_cycles::no_targets          nan                       # average number of cycles each access was blocked
system.cpu.dcache.demand_mshr_hits::.cpu.data           51                       # number of demand (read+write) MSHR hits
system.cpu.dcache.demand_mshr_hits::total           51                       # number of demand (read+write) MSHR hits
system.cpu.dcache.overall_mshr_hits::.cpu.data           51                       # number of overall MSHR hits
system.cpu.dcache.overall_mshr_hits::total           51                       # number of overall MSHR hits
system.cpu.dcache.demand_mshr_misses::.cpu.data          166                       # number of demand (read+write) MSHR misses
system.cpu.dcache.demand_mshr_misses::total          166                       # number of demand (read+write) MSHR misses
system.cpu.dcache.overall_mshr_misses::.cpu.data          172                       # number of overall MSHR misses
system.cpu.dcache.overall_mshr_misses::total          172                       # number of overall MSHR misses
system.cpu.dcache.demand_mshr_miss_latency::.cpu.data     10355840                       # number of demand (read+write) MSHR miss cycles
system.cpu.dcache.demand_mshr_miss_latency::total     10355840                       # number of demand (read+write) MSHR miss cycles
system.cpu.dcache.overall_mshr_miss_latency::.cpu.data     10685890                       # number of overall MSHR miss cycles
system.cpu.dcache.overall_mshr_miss_latency::total     10685890                       # number of overall MSHR miss cycles
system.cpu.dcache.demand_mshr_miss_rate::.cpu.data     0.053914                       # mshr miss rate for demand accesses
system.cpu.dcache.demand_mshr_miss_rate::total     0.053914                       # mshr miss rate for demand accesses
system.cpu.dcache.overall_mshr_miss_rate::.cpu.data     0.055323                       # mshr miss rate for overall accesses
system.cpu.dcache.overall_mshr_miss_rate::total     0.055323                       # mshr miss rate for overall accesses
system.cpu.dcache.demand_avg_mshr_miss_latency::.cpu.data 62384.578313                       # average overall mshr miss latency
system.cpu.dcache.demand_avg_mshr_miss_latency::total 62384.578313                       # average overall mshr miss latency
system.cpu.dcache.overall_avg_mshr_miss_latency::.cpu.data 62127.267442                       # average overall mshr miss latency
system.cpu.dcache.overall_avg_mshr_miss_latency::total 62127.267442                       # average overall mshr miss latency
system.cpu.dcache.replacements                      1                       # number of replacements
system.cpu.dcache.ReadReq_hits::.cpu.data         1473                       # number of ReadReq hits
system.cpu.dcache.ReadReq_hits::total            1473                       # number of ReadReq hits
system.cpu.dcache.ReadReq_misses::.cpu.data          102                       # number of ReadReq misses
system.cpu.dcache.ReadReq_misses::total           102                       # number of ReadReq misses
system.cpu.dcache.ReadReq_miss_latency::.cpu.data      6669336                       # number of ReadReq miss cycles
system.cpu.dcache.ReadReq_miss_latency::total      6669336                       # number of ReadReq miss cycles
system.cpu.dcache.ReadReq_accesses::.cpu.data         1575                       # number of ReadReq accesses(hits+misses)
system.cpu.dcache.ReadReq_accesses::total         1575                       # number of ReadReq accesses(hits+misses)
system.cpu.dcache.ReadReq_miss_rate::.cpu.data     0.064762                       # miss rate for ReadReq accesses
system.cpu.dcache.ReadReq_miss_rate::total     0.064762                       # miss rate for ReadReq accesses
system.cpu.dcache.ReadReq_avg_miss_latency::.cpu.data 65385.647059                       # average ReadReq miss latency
system.cpu.dcache.ReadReq_avg_miss_latency::total 65385.647059                       # average ReadReq miss latency
system.cpu.dcache.ReadReq_mshr_hits::.cpu.data            4                       # number of ReadReq MSHR hits
system.cpu.dcache.ReadReq_mshr_hits::total            4                       # number of ReadReq MSHR hits
system.cpu.dcache.ReadReq_mshr_misses::.cpu.data           98                       # number of ReadReq MSHR misses
system.cpu.dcache.ReadReq_mshr_misses::total           98                       # number of ReadReq MSHR misses
system.cpu.dcache.ReadReq_mshr_miss_latency::.cpu.data      6396056                       # number of ReadReq MSHR miss cycles
system.cpu.dcache.ReadReq_mshr_miss_latency::total      6396056                       # number of ReadReq MSHR miss cycles
system.cpu.dcache.ReadReq_mshr_miss_rate::.cpu.data     0.062222                       # mshr miss rate for ReadReq accesses
system.cpu.dcache.ReadReq_mshr_miss_rate::total     0.062222                       # mshr miss rate for ReadReq accesses
system.cpu.dcache.ReadReq_avg_mshr_miss_latency::.cpu.data 65265.877551                       # average ReadReq mshr miss latency
system.cpu.dcache.ReadReq_avg_mshr_miss_latency::total 65265.877551                       # average ReadReq mshr miss latency
system.cpu.dcache.WriteReq_hits::.cpu.data         1389                       # number of WriteReq hits
system.cpu.dcache.WriteReq_hits::total           1389                       # number of WriteReq hits
system.cpu.dcache.WriteReq_misses::.cpu.data          115                       # number of WriteReq misses
system.cpu.dcache.WriteReq_misses::total          115                       # number of WriteReq misses
system.cpu.dcache.WriteReq_miss_latency::.cpu.data      6747763                       # number of WriteReq miss cycles
system.cpu.dcache.WriteReq_miss_latency::total      6747763                       # number of WriteReq miss cycles
system.cpu.dcache.WriteReq_accesses::.cpu.data         1504                       # number of WriteReq accesses(hits+misses)
system.cpu.dcache.WriteReq_accesses::total         1504                       # number of WriteReq accesses(hits+misses)
system.cpu.dcache.WriteReq_miss_rate::.cpu.data     0.076463                       # miss rate for WriteReq accesses
system.cpu.dcache.WriteReq_miss_rate::total     0.076463                       # miss rate for WriteReq accesses
system.cpu.dcache.WriteReq_avg_miss_latency::.cpu.data 58676.200000                       # average WriteReq miss latency
system.cpu.dcache.WriteReq_avg_miss_latency::total 58676.200000                       # average WriteReq miss latency
system.cpu.dcache.WriteReq_mshr_hits::.cpu.data           47                       # number of WriteReq MSHR hits
system.cpu.dcache.WriteReq_mshr_hits::total           47                       # number of WriteReq MSHR hits
system.cpu.dcache.WriteReq_mshr_misses::.cpu.data           68                       # number of WriteReq MSHR misses
system.cpu.dcache.WriteReq_mshr_misses::total           68                       # number of WriteReq MSHR misses
system.cpu.dcache.WriteReq_mshr_miss_latency::.cpu.data      3959784                       # number of WriteReq MSHR miss cycles
system.cpu.dcache.WriteReq_mshr_miss_latency::total      3959784                       # number of WriteReq MSHR miss cycles
system.cpu.dcache.WriteReq_mshr_miss_rate::.cpu.data     0.045213                       # mshr miss rate for WriteReq accesses
system.cpu.dcache.WriteReq_mshr_miss_rate::total     0.045213                       # mshr miss rate for WriteReq accesses
system.cpu.dcache.WriteReq_avg_mshr_miss_latency::.cpu.data 58232.117647                       # average WriteReq mshr miss latency
system.cpu.dcache.WriteReq_avg_mshr_miss_latency::total 58232.117647                       # average WriteReq mshr miss latency
system.cpu.dcache.SoftPFReq_hits::.cpu.data           23                       # number of SoftPFReq hits
system.cpu.dcache.SoftPFReq_hits::total            23                       # number of SoftPFReq hits
system.cpu.dcache.SoftPFReq_misses::.cpu.data            7                       # number of SoftPFReq misses
system.cpu.dcache.SoftPFReq_misses::total            7                       # number of SoftPFReq misses
system.cpu.dcache.SoftPFReq_accesses::.cpu.data           30                       # number of SoftPFReq accesses(hits+misses)
system.cpu.dcache.SoftPFReq_accesses::total           30                       # number of SoftPFReq accesses(hits+misses)
system.cpu.dcache.SoftPFReq_miss_rate::.cpu.data     0.233333                       # miss rate for SoftPFReq accesses
system.cpu.dcache.SoftPFReq_miss_rate::total     0.233333                       # miss rate for SoftPFReq accesses
system.cpu.dcache.SoftPFReq_mshr_misses::.cpu.data            6                       # number of SoftPFReq MSHR misses
system.cpu.dcache.SoftPFReq_mshr_misses::total            6                       # number of SoftPFReq MSHR misses
system.cpu.dcache.SoftPFReq_mshr_miss_latency::.cpu.data       330050                       # number of SoftPFReq MSHR miss cycles
system.cpu.dcache.SoftPFReq_mshr_miss_latency::total       330050                       # number of SoftPFReq MSHR miss cycles
system.cpu.dcache.SoftPFReq_mshr_miss_rate::.cpu.data     0.200000                       # mshr miss rate for SoftPFReq accesses
system.cpu.dcache.SoftPFReq_mshr_miss_rate::total     0.200000                       # mshr miss rate for SoftPFReq accesses
system.cpu.dcache.SoftPFReq_avg_mshr_miss_latency::.cpu.data 55008.333333                       # average SoftPFReq mshr miss latency
system.cpu.dcache.SoftPFReq_avg_mshr_miss_latency::total 55008.333333                       # average SoftPFReq mshr miss latency
system.cpu.dcache.LoadLockedReq_hits::.cpu.data           18                       # number of LoadLockedReq hits
system.cpu.dcache.LoadLockedReq_hits::total           18                       # number of LoadLockedReq hits
system.cpu.dcache.LoadLockedReq_accesses::.cpu.data           18                       # number of LoadLockedReq accesses(hits+misses)
system.cpu.dcache.LoadLockedReq_accesses::total           18                       # number of LoadLockedReq accesses(hits+misses)
system.cpu.dcache.StoreCondReq_hits::.cpu.data           18                       # number of StoreCondReq hits
system.cpu.dcache.StoreCondReq_hits::total           18                       # number of StoreCondReq hits
system.cpu.dcache.StoreCondReq_accesses::.cpu.data           18                       # number of StoreCondReq accesses(hits+misses)
system.cpu.dcache.StoreCondReq_accesses::total           18                       # number of StoreCondReq accesses(hits+misses)
system.cpu.dcache.tags.pwrStateResidencyTicks::UNDEFINED     29725578                       # Cumulative time (in ticks) in various power states
system.cpu.dcache.tags.tagsinuse            94.545846                       # Cycle average of tags in use
system.cpu.dcache.tags.total_refs                3093                       # Total number of references to valid blocks.
system.cpu.dcache.tags.sampled_refs               172                       # Sample count of references to valid blocks.
system.cpu.dcache.tags.avg_refs             17.982558                       # Average number of references to valid blocks.
system.cpu.dcache.tags.warmup_cycle            142000                       # Cycle when the warmup percentage was hit.
system.cpu.dcache.tags.occ_blocks::.cpu.data    94.545846                       # Average occupied blocks per requestor
system.cpu.dcache.tags.occ_percent::.cpu.data     0.092330                       # Average percentage of cache occupancy
system.cpu.dcache.tags.occ_percent::total     0.092330                       # Average percentage of cache occupancy
system.cpu.dcache.tags.occ_task_id_blocks::1024          171                       # Occupied blocks per task id
system.cpu.dcache.tags.age_task_id_blocks_1024::0           47                       # Occupied blocks per task id
system.cpu.dcache.tags.age_task_id_blocks_1024::1          124                       # Occupied blocks per task id
system.cpu.dcache.tags.occ_task_id_percent::1024     0.166992                       # Percentage of cache occupancy per task id
system.cpu.dcache.tags.tag_accesses              6462                       # Number of tag accesses
system.cpu.dcache.tags.data_accesses             6462                       # Number of data accesses
system.cpu.itb.walker.pwrStateResidencyTicks::UNDEFINED     29725578                       # Cumulative time (in ticks) in various power states
system.cpu.itb.stage2_mmu.stage2_tlb.walker.pwrStateResidencyTicks::UNDEFINED     29725578                       # Cumulative time (in ticks) in various power states

---------- End Simulation Statistics   ----------
